/*--------------------------------*- C++ -*----------------------------------*\
  =========                 |
  \\      /  F ield         | OpenFOAM: The Open Source CFD Toolbox
   \\    /   O peration     | Website:  https://openfoam.org
    \\  /    A nd           | Version:  7
     \\/     M anipulation  |
\*---------------------------------------------------------------------------*/
FoamFile
{
    version     2.0;
    format      ascii;
    class       featureEdgeMesh;
    location    "constant/triSurface";
    object      walls.eMesh;
}
// * * * * * * * * * * * * * * * * * * * * * * * * * * * * * * * * * * * * * //


// points:

151
(
(0.674286 0.320656 -0.00301342)
(0.652386 0.310882 -0.0104401)
(0.652831 0.308854 -0.00455019)
(0.628738 0.281224 -0.0114959)
(0.632243 0.282301 0.00171568)
(0 0.0205746 -0.0142016)
(0 0.0233754 -0.00886512)
(0 0.0248177 -0.00301342)
(0 0.0248177 0.00301342)
(0 6.12323e-18 0.025)
(0 -0.00598289 0.0242736)
(0 0.0233754 0.00886512)
(0 -0.0116181 0.0221364)
(0 0.0205746 0.0142016)
(0 -0.0165781 0.0187128)
(0 -0.0205746 0.0142016)
(0 0.0165781 0.0187128)
(0 0.0116181 0.0221364)
(0 -0.0233754 0.00886512)
(0 0.00598289 0.0242736)
(0 -0.0248177 0.00301342)
(0 -0.0248177 -0.00301342)
(0 -0.0233754 -0.00886512)
(0 -0.0205746 -0.0142016)
(0 -0.0165781 -0.0187128)
(0 -0.0116181 -0.0221364)
(0 -0.00598289 -0.0242736)
(0 -2.52661e-17 -0.025)
(0 0.00598289 -0.0242736)
(0 0.0116181 -0.0221364)
(0 0.0165781 -0.0187128)
(0.949999 0.333429 -0.0187128)
(0.949998 0.329433 -0.0142016)
(0.949999 0.344025 0.0242736)
(0.95 0.350008 0.025)
(0.950001 0.35599 0.0242736)
(0.949998 0.326632 -0.00886512)
(0.950001 0.361626 0.0221364)
(0.949998 0.32519 -0.00301342)
(0.950001 0.366586 0.0187128)
(0.950002 0.370582 0.0142016)
(0.949998 0.32519 0.00301342)
(0.950002 0.373383 0.00886512)
(0.950002 0.374825 0.00301342)
(0.949998 0.326632 0.00886512)
(0.950002 0.374825 -0.00301342)
(0.95 0.350008 -0.025)
(0.949999 0.344025 -0.0242736)
(0.950002 0.373383 -0.00886512)
(0.949998 0.329433 0.0142016)
(0.950002 0.370582 -0.0142016)
(0.950001 0.366586 -0.0187128)
(0.949999 0.333429 0.0187128)
(0.950001 0.361626 -0.0221364)
(0.949999 0.33839 -0.0221364)
(0.950001 0.35599 -0.0242736)
(0.949999 0.33839 0.0221364)
(0.588382 0.6 0.0221364)
(0.583422 0.6 0.0187128)
(0.594017 0.6 0.0242736)
(0.6 0.6 0.025)
(0.605983 0.6 0.0242736)
(0.611618 0.6 0.0221364)
(0.611618 0.6 -0.0221364)
(0.616578 0.6 -0.0187128)
(0.616578 0.6 0.0187128)
(0.620575 0.6 0.0142016)
(0.605983 0.6 -0.0242736)
(0.6 0.6 -0.025)
(0.623375 0.6 0.00886512)
(0.594017 0.6 -0.0242736)
(0.588382 0.6 -0.0221364)
(0.624818 0.6 0.00301342)
(0.583422 0.6 -0.0187128)
(0.579425 0.6 -0.0142016)
(0.576625 0.6 -0.00886512)
(0.624818 0.6 -0.00301342)
(0.623375 0.6 -0.00886512)
(0.575182 0.6 -0.00301342)
(0.575182 0.6 0.00301342)
(0.620575 0.6 -0.0142016)
(0.576625 0.6 0.00886512)
(0.579425 0.6 0.0142016)
(0.671613 0.319489 -0.00167694)
(0.669772 0.33306 -0.0221364)
(0.664995 0.331162 -0.0221364)
(0.662649 0.330109 -0.0221364)
(0.650003 0.336612 -0.025)
(0.6658 0.343978 -0.025)
(0.654444 0.31507 -0.0142016)
(0.673793 0.322011 0.00886512)
(0.660552 0.315107 0.00739503)
(0.640976 0.304934 -0.0158021)
(0.665135 0.323434 0.0165741)
(0.659298 0.317543 0.0133336)
(0.646185 0.323539 0.0233698)
(0.644037 0.320004 0.0227423)
(0.634753 0.29165 -0.0106963)
(0.622359 0.289278 -0.0213588)
(0.619232 0.282362 -0.0213588)
(0.636964 0.291231 -0.00398151)
(0.639289 0.294698 0.00437486)
(0.648924 0.305887 0.00589635)
(0.637159 0.307397 0.020077)
(0.645521 0.333506 0.0249982)
(0.64273 0.32826 0.0248158)
(0.626175 0.270855 -0.00909265)
(0.629687 0.276273 0.00171568)
(0.627029 0.267733 0.00214896)
(0.625354 0.265637 -0.00785133)
(0.614387 0.280521 0.0232805)
(0.610158 0.268586 0.0235971)
(0.649254 0.318174 -0.0199861)
(0.639128 0.310466 -0.0205713)
(0.659198 0.312941 0.000382412)
(0.666402 0.330328 0.0213932)
(0.65475 0.325917 0.0221315)
(0.647885 0.304027 -0.00173232)
(0.627285 0.297713 0.0213342)
(0.632462 0.306903 0.0220979)
(0.684653 0.337047 -0.0221364)
(0.656401 0.312773 0.00831211)
(0.686207 0.328226 -0.0142016)
(0.672835 0.324643 -0.0142016)
(0.686944 0.324048 -0.00301342)
(0.686693 0.325468 0.00886512)
(0.685514 0.332162 0.0187128)
(0.671468 0.328399 0.0187128)
(0.683675 0.342596 0.0242736)
(0.667846 0.338355 0.0242736)
(0.620099 0.339671 -0.0148673)
(0.622133 0.344099 -0.0116244)
(0.617345 0.333302 -0.0180045)
(0.612732 0.321372 -0.0215148)
(0.619402 0.338103 0.0157659)
(0.616123 0.330315 0.019106)
(0.61159 0.318096 0.022151)
(0.608615 0.308709 0.0234688)
(0.606051 0.299204 0.0242567)
(0.621598 0.342955 0.0125904)
(0.609537 0.311771 -0.0231095)
(0.606765 0.302028 -0.0240672)
(0.622982 0.345886 0.00984107)
(0.623808 0.347594 0.00762834)
(0.624334 0.348668 0.00572974)
(0.624737 0.34948 0.00361726)
(0.624965 0.349937 0.00132502)
(0.624969 0.349947 -0.00123416)
(0.624694 0.349394 -0.00389863)
(0.624187 0.348368 -0.00632318)
(0.623528 0.347019 -0.00845225)
)


// edges:

130
(
(0 83)
(84 85)
(85 86)
(87 88)
(89 1)
(90 91)
(92 1)
(93 94)
(95 96)
(97 3)
(98 99)
(100 4)
(101 102)
(96 103)
(104 105)
(106 3)
(107 108)
(107 4)
(106 109)
(110 111)
(112 113)
(114 2)
(115 116)
(2 117)
(118 119)
(120 84)
(121 102)
(122 123)
(124 0)
(125 90)
(126 127)
(128 129)
(130 131)
(132 130)
(133 132)
(134 135)
(135 136)
(136 137)
(137 138)
(139 134)
(140 133)
(141 140)
(142 139)
(143 142)
(144 143)
(145 144)
(146 145)
(147 146)
(148 147)
(149 148)
(150 149)
(131 150)
(5 6)
(6 7)
(7 8)
(9 10)
(8 11)
(10 12)
(11 13)
(12 14)
(14 15)
(13 16)
(16 17)
(15 18)
(17 19)
(19 9)
(18 20)
(20 21)
(21 22)
(22 23)
(23 24)
(24 25)
(25 26)
(26 27)
(27 28)
(28 29)
(29 30)
(30 5)
(31 32)
(33 34)
(34 35)
(32 36)
(35 37)
(36 38)
(37 39)
(39 40)
(38 41)
(40 42)
(42 43)
(41 44)
(43 45)
(46 47)
(45 48)
(44 49)
(48 50)
(50 51)
(49 52)
(51 53)
(47 54)
(53 55)
(55 46)
(52 56)
(54 31)
(56 33)
(57 58)
(59 57)
(60 59)
(61 60)
(62 61)
(63 64)
(65 62)
(66 65)
(67 63)
(68 67)
(69 66)
(70 68)
(71 70)
(72 69)
(73 71)
(74 73)
(75 74)
(76 72)
(77 76)
(78 75)
(79 78)
(80 77)
(81 79)
(64 80)
(82 81)
(58 82)
)

// * * * * * * * * * * * * * * * * * * * * * * * * * * * * * * * * * * * * * //


// ************************************************************************* //
