/*--------------------------------*- C++ -*----------------------------------*\
| =========                 |                                                 |
| \\      /  F ield         | OpenFOAM: The Open Source CFD Toolbox           |
|  \\    /   O peration     | Version:  v1906                                 |
|   \\  /    A nd           | Web:      www.OpenFOAM.com                      |
|    \\/     M anipulation  |                                                 |
\*---------------------------------------------------------------------------*/
FoamFile
{
    version     2.0;
    format      ascii;
    class       volScalarField;
    object      nut;
}
// * * * * * * * * * * * * * * * * * * * * * * * * * * * * * * * * * * * * * //

dimensions      [0 2 -1 0 0 0 0];

/*
	nuT = 10 * nu,
	roughly
*/
internalField   uniform 1e-5;   

boundaryField
{
    inlet
    {
        type            calculated;
        value           $internalField;
    }
    
	"outlet.*"
    {
        type            calculated;
        value           $internalField;
    }

    walls
    {
        type            nutkWallFunction;
        value           $internalField;
    }
}

// ************************************************************************* //
