/*--------------------------------*- C++ -*----------------------------------*\
| =========                 |                                                 |
| \\      /  F ield         | OpenFOAM: The Open Source CFD Toolbox           |
|  \\    /   O peration     | Version:  v1906                                 |
|   \\  /    A nd           | Web:      www.OpenFOAM.com                      |
|    \\/     M anipulation  |                                                 |
\*---------------------------------------------------------------------------*/
FoamFile
{
    version     2.0;
    format      ascii;
    class       volScalarField;
    object      omega;
}
// * * * * * * * * * * * * * * * * * * * * * * * * * * * * * * * * * * * * * //

dimensions      [0 0 -1 0 0 0 0];

/*
	omega = sqrt(k) / (Cm**0.25 * D)
*/

internalField   uniform 1.1388;

boundaryField
{
    inlet
	{
		type        		fixedValue;
		value       		$internalField;
	}

    "outlet.*"
    {
        type            	inletOutlet;
        value           	$internalField;
        inletValue      	$internalField;
    }

    walls
    {
        type                omegaWallFunction;
        value               uniform 1e3;
    }
}

// ************************************************************************* //
